data_image0
_chemical_formula_structural       CoO3Co2O6SrCo3O7Sr2Co2O6Sr2Co6O14Sr4Co4O12Co2O3SrCoO2Co4O6Sr2Co2O4
_chemical_formula_sum              "Co27 O63 Sr12"
_cell_length_a       16.47058665
_cell_length_b       23.453949
_cell_length_c       32.91542043
_cell_angle_alpha    90.0
_cell_angle_beta     90.0
_cell_angle_gamma    90.0

_space_group_name_H-M_alt    "P 1"
_space_group_IT_number       1

loop_
  _space_group_symop_operation_xyz
  'x, y, z'

loop_
  _atom_site_type_symbol
  _atom_site_label
  _atom_site_symmetry_multiplicity
  _atom_site_fract_x
  _atom_site_fract_y
  _atom_site_fract_z
  _atom_site_occupancy
  Co  Co1       1.0  0.16666666666666666  0.5  0.3330968333333334  1.0000
  O   O1        1.0  0.254417  0.5  0.28884883333333333  1.0000
  O   O2        1.0  0.16666666666666666  0.5801535  0.3326315000000001  1.0000
  O   O3        1.0  0.25128666666666666  0.5  0.3761995  1.0000
  Co  Co2       1.0  0.16666666666666666  0.8333333333333333  0.3330968333333334  1.0000
  Co  Co3       1.0  0.16666666666666666  0.6666666666666666  0.3310021666666667  1.0000
  O   O4        1.0  0.254417  0.8333333333333333  0.28884883333333333  1.0000
  O   O5        1.0  0.250468  0.6666666666666666  0.2934618333333334  1.0000
  O   O6        1.0  0.16666666666666666  0.9134868333333331  0.3326315000000001  1.0000
  O   O7        1.0  0.16666666666666666  0.7531798333333333  0.3326315000000001  1.0000
  O   O8        1.0  0.25289466666666666  0.6666666666666666  0.3764155  1.0000
  O   O9        1.0  0.25128666666666666  0.8333333333333333  0.3761995  1.0000
  Sr  Sr1       1.0  0.5  0.5848996666666667  0.24896300000000007  1.0000
  Co  Co4       1.0  0.3333333333333333  0.5  0.24952500000000005  1.0000
  Co  Co5       1.0  0.5  0.5  0.3330968333333334  1.0000
  Co  Co6       1.0  0.5  0.5  0.1643355  1.0000
  O   O10       1.0  0.3333333333333333  0.5888923333333334  0.2514876666666667  1.0000
  O   O11       1.0  0.4122496666666666  0.5  0.28884883333333333  1.0000
  O   O12       1.0  0.5877503333333334  0.5  0.28884883333333333  1.0000
  O   O13       1.0  0.41377200000000003  0.5  0.20974883333333336  1.0000
  O   O14       1.0  0.586228  0.5  0.20974883333333336  1.0000
  O   O15       1.0  0.5  0.5865131666666666  0.16596483333333337  1.0000
  O   O16       1.0  0.5  0.5801535  0.3326315000000001  1.0000
  Sr  Sr2       1.0  0.3333333333333333  0.5824098333333333  0.3336045  1.0000
  Sr  Sr3       1.0  0.5  0.5817669999999999  0.41562966666666673  1.0000
  Co  Co7       1.0  0.3333333333333333  0.5  0.41647700000000004  1.0000
  Co  Co8       1.0  0.5  0.5  0.49766883333333334  1.0000
  O   O17       1.0  0.3333333333333333  0.5777743333333333  0.41815433333333335  1.0000
  O   O18       1.0  0.41537999999999997  0.5  0.3761995  1.0000
  O   O19       1.0  0.58462  0.5  0.3761995  1.0000
  O   O20       1.0  0.41619866666666666  0.5  0.4601285000000001  1.0000
  O   O21       1.0  0.5838013333333333  0.5  0.4601285000000001  1.0000
  O   O22       1.0  0.5  0.5865131666666666  0.49929816666666677  1.0000
  Sr  Sr4       1.0  0.5  0.7484336666666666  0.24896300000000007  1.0000
  Sr  Sr5       1.0  0.5  0.9182329999999999  0.24896300000000007  1.0000
  Co  Co9       1.0  0.3333333333333333  0.8333333333333333  0.24952500000000005  1.0000
  Co  Co10      1.0  0.3333333333333333  0.6666666666666666  0.24981033333333336  1.0000
  Co  Co11      1.0  0.5  0.6666666666666666  0.16643016666666668  1.0000
  Co  Co12      1.0  0.5  0.8333333333333333  0.3330968333333334  1.0000
  Co  Co13      1.0  0.5  0.6666666666666666  0.3310021666666667  1.0000
  Co  Co14      1.0  0.5  0.8333333333333333  0.1643355  1.0000
  O   O23       1.0  0.3333333333333333  0.7444409999999999  0.2514876666666667  1.0000
  O   O24       1.0  0.3333333333333333  0.9222256666666666  0.2514876666666667  1.0000
  O   O25       1.0  0.4122496666666666  0.8333333333333333  0.28884883333333333  1.0000
  O   O26       1.0  0.5877503333333334  0.8333333333333333  0.28884883333333333  1.0000
  O   O27       1.0  0.41377200000000003  0.8333333333333333  0.20974883333333336  1.0000
  O   O28       1.0  0.586228  0.8333333333333333  0.20974883333333336  1.0000
  O   O29       1.0  0.41537999999999997  0.6666666666666666  0.20953283333333333  1.0000
  O   O30       1.0  0.58462  0.6666666666666666  0.20953283333333333  1.0000
  O   O31       1.0  0.41619866666666666  0.6666666666666666  0.2934618333333334  1.0000
  O   O32       1.0  0.5838013333333333  0.6666666666666666  0.2934618333333334  1.0000
  O   O33       1.0  0.5  0.7468201666666666  0.16596483333333337  1.0000
  O   O34       1.0  0.5  0.9198464999999999  0.16596483333333337  1.0000
  O   O35       1.0  0.5  0.9134868333333331  0.3326315000000001  1.0000
  O   O36       1.0  0.5  0.7531798333333333  0.3326315000000001  1.0000
  Sr  Sr6       1.0  0.3333333333333333  0.9157431666666666  0.3336045  1.0000
  Sr  Sr7       1.0  0.3333333333333333  0.7509235  0.3336045  1.0000
  Sr  Sr8       1.0  0.5  0.9151003333333332  0.41562966666666673  1.0000
  Sr  Sr9       1.0  0.5  0.7515663333333332  0.41562966666666673  1.0000
  Co  Co15      1.0  0.3333333333333333  0.6666666666666666  0.41619166666666674  1.0000
  Co  Co16      1.0  0.3333333333333333  0.8333333333333333  0.41647700000000004  1.0000
  Co  Co17      1.0  0.5  0.6666666666666666  0.49976350000000014  1.0000
  Co  Co18      1.0  0.5  0.8333333333333333  0.49766883333333334  1.0000
  O   O37       1.0  0.3333333333333333  0.9111076666666666  0.41815433333333335  1.0000
  O   O38       1.0  0.3333333333333333  0.755559  0.41815433333333335  1.0000
  O   O39       1.0  0.4122496666666666  0.6666666666666666  0.4555155000000001  1.0000
  O   O40       1.0  0.5877503333333334  0.6666666666666666  0.4555155000000001  1.0000
  O   O41       1.0  0.41377200000000003  0.6666666666666666  0.3764155  1.0000
  O   O42       1.0  0.586228  0.6666666666666666  0.3764155  1.0000
  O   O43       1.0  0.41537999999999997  0.8333333333333333  0.3761995  1.0000
  O   O44       1.0  0.58462  0.8333333333333333  0.3761995  1.0000
  O   O45       1.0  0.41619866666666666  0.8333333333333333  0.4601285000000001  1.0000
  O   O46       1.0  0.5838013333333333  0.8333333333333333  0.4601285000000001  1.0000
  O   O47       1.0  0.5  0.7468201666666666  0.49929816666666677  1.0000
  O   O48       1.0  0.5  0.9198464999999999  0.49929816666666677  1.0000
  Co  Co19      1.0  0.6666666666666666  0.5  0.24952500000000005  1.0000
  Co  Co20      1.0  0.8333333333333333  0.5  0.3330968333333334  1.0000
  O   O49       1.0  0.6666666666666666  0.5888923333333334  0.2514876666666667  1.0000
  O   O50       1.0  0.745583  0.5  0.28884883333333333  1.0000
  O   O51       1.0  0.8333333333333333  0.5801535  0.3326315000000001  1.0000
  Sr  Sr10      1.0  0.6666666666666666  0.5824098333333333  0.3336045  1.0000
  Co  Co21      1.0  0.6666666666666666  0.5  0.41647700000000004  1.0000
  O   O52       1.0  0.6666666666666666  0.5777743333333333  0.41815433333333335  1.0000
  O   O53       1.0  0.7487133333333332  0.5  0.3761995  1.0000
  Co  Co22      1.0  0.6666666666666666  0.8333333333333333  0.24952500000000005  1.0000
  Co  Co23      1.0  0.6666666666666666  0.6666666666666666  0.24981033333333336  1.0000
  Co  Co24      1.0  0.8333333333333333  0.8333333333333333  0.3330968333333334  1.0000
  Co  Co25      1.0  0.8333333333333333  0.6666666666666666  0.3310021666666667  1.0000
  O   O54       1.0  0.6666666666666666  0.7444409999999999  0.2514876666666667  1.0000
  O   O55       1.0  0.6666666666666666  0.9222256666666666  0.2514876666666667  1.0000
  O   O56       1.0  0.745583  0.8333333333333333  0.28884883333333333  1.0000
  O   O57       1.0  0.749532  0.6666666666666666  0.2934618333333334  1.0000
  O   O58       1.0  0.8333333333333333  0.9134868333333331  0.3326315000000001  1.0000
  O   O59       1.0  0.8333333333333333  0.7531798333333333  0.3326315000000001  1.0000
  Sr  Sr11      1.0  0.6666666666666666  0.9157431666666666  0.3336045  1.0000
  Sr  Sr12      1.0  0.6666666666666666  0.7509235  0.3336045  1.0000
  Co  Co26      1.0  0.6666666666666666  0.6666666666666666  0.41619166666666674  1.0000
  Co  Co27      1.0  0.6666666666666666  0.8333333333333333  0.41647700000000004  1.0000
  O   O60       1.0  0.6666666666666666  0.9111076666666666  0.41815433333333335  1.0000
  O   O61       1.0  0.6666666666666666  0.755559  0.41815433333333335  1.0000
  O   O62       1.0  0.7471053333333333  0.6666666666666666  0.3764155  1.0000
  O   O63       1.0  0.7487133333333332  0.8333333333333333  0.3761995  1.0000
