data_image0
_chemical_formula_structural       TiO2TiO2TiO2TiO2SrTiO3SrTiO3SrTiO3SrTiO3SrTiO3SrTiO3SrTiO3SrTiO3
_chemical_formula_sum              "Ti12 O32 Sr8"
_cell_length_a       7.8254
_cell_length_b       7.8254
_cell_length_c       23.6945
_cell_angle_alpha    90
_cell_angle_beta     90
_cell_angle_gamma    90

_space_group_name_H-M_alt    "P 1"
_space_group_IT_number       1

loop_
  _space_group_symop_operation_xyz
  'x, y, z'

loop_
  _atom_site_type_symbol
  _atom_site_label
  _atom_site_symmetry_multiplicity
  _atom_site_fract_x
  _atom_site_fract_y
  _atom_site_fract_z
  _atom_site_occupancy
  Ti  Ti1       1.0  0.50001  0.50001  0.29359  1.0000
  O   O1        1.0  0.25001  0.50001  0.29359  1.0000
  O   O2        1.0  0.50001  0.25001  0.29359  1.0000
  Ti  Ti2       1.0  0.50001  0.00001  0.29359  1.0000
  O   O3        1.0  0.25001  0.00001  0.29359  1.0000
  O   O4        1.0  0.50001  0.75001  0.29359  1.0000
  Ti  Ti3       1.0  0.00001  0.50001  0.29359  1.0000
  O   O5        1.0  0.75001  0.50001  0.29359  1.0000
  O   O6        1.0  0.00001  0.25001  0.29359  1.0000
  Ti  Ti4       1.0  0.00001  0.00001  0.29359  1.0000
  O   O7        1.0  0.75001  0.00001  0.29359  1.0000
  O   O8        1.0  0.00001  0.75001  0.29359  1.0000
  Sr  Sr1       1.0  0.25001  0.25001  0.37615  1.0000
  Ti  Ti5       1.0  0.50001  0.50001  0.45872  1.0000
  O   O9        1.0  0.25001  0.50001  0.45872  1.0000
  O   O10       1.0  0.50001  0.25001  0.45872  1.0000
  O   O11       1.0  0.50001  0.50001  0.37615  1.0000
  Sr  Sr2       1.0  0.25001  0.75001  0.37615  1.0000
  Ti  Ti6       1.0  0.50001  0.00001  0.45872  1.0000
  O   O12       1.0  0.25001  0.00001  0.45872  1.0000
  O   O13       1.0  0.50001  0.75001  0.45872  1.0000
  O   O14       1.0  0.50001  0.00001  0.37615  1.0000
  Sr  Sr3       1.0  0.75001  0.25001  0.37615  1.0000
  Ti  Ti7       1.0  0.00001  0.50001  0.45872  1.0000
  O   O15       1.0  0.75001  0.50001  0.45872  1.0000
  O   O16       1.0  0.00001  0.25001  0.45872  1.0000
  O   O17       1.0  0.00001  0.50001  0.37615  1.0000
  Sr  Sr4       1.0  0.75001  0.75001  0.37615  1.0000
  Ti  Ti8       1.0  0.00001  0.00001  0.45872  1.0000
  O   O18       1.0  0.75001  0.00001  0.45872  1.0000
  O   O19       1.0  0.00001  0.75001  0.45872  1.0000
  O   O20       1.0  0.00001  0.00001  0.37615  1.0000
  Sr  Sr5       1.0  0.25001  0.25001  0.54128  1.0000
  Ti  Ti9       1.0  0.50001  0.50001  0.62385  1.0000
  O   O21       1.0  0.25001  0.50001  0.62385  1.0000
  O   O22       1.0  0.50001  0.25001  0.62385  1.0000
  O   O23       1.0  0.50001  0.50001  0.54128  1.0000
  Sr  Sr6       1.0  0.25001  0.75001  0.54128  1.0000
  Ti  Ti10      1.0  0.50001  0.00001  0.62385  1.0000
  O   O24       1.0  0.25001  0.00001  0.62385  1.0000
  O   O25       1.0  0.50001  0.75001  0.62385  1.0000
  O   O26       1.0  0.50001  0.00001  0.54128  1.0000
  Sr  Sr7       1.0  0.75001  0.25001  0.54128  1.0000
  Ti  Ti11      1.0  0.00001  0.50001  0.62385  1.0000
  O   O27       1.0  0.75001  0.50001  0.62385  1.0000
  O   O28       1.0  0.00001  0.25001  0.62385  1.0000
  O   O29       1.0  0.00001  0.50001  0.54128  1.0000
  Sr  Sr8       1.0  0.75001  0.75001  0.54128  1.0000
  Ti  Ti12      1.0  0.00001  0.00001  0.62385  1.0000
  O   O30       1.0  0.75001  0.00001  0.62385  1.0000
  O   O31       1.0  0.00001  0.75001  0.62385  1.0000
  O   O32       1.0  0.00001  0.00001  0.54128  1.0000
