# generated using pymatgen
data_BaTiO3
_symmetry_space_group_name_H-M   'P 1'
_cell_length_a   5.69651224
_cell_length_b   5.69651224
_cell_length_c   7.00668100
_cell_angle_alpha   90.00000000
_cell_angle_beta   90.00000000
_cell_angle_gamma   120.00000000
_symmetry_Int_Tables_number   1
_chemical_formula_structural   BaTiO3
_chemical_formula_sum   'Ba3 Ti3 O9'
_cell_volume   196.90695089
_cell_formula_units_Z   3
loop_
 _symmetry_equiv_pos_site_id
 _symmetry_equiv_pos_as_xyz
  1  'x, y, z'
loop_
 _atom_type_symbol
 _atom_type_oxidation_number
  Ba2+  2.0
  Ti4+  4.0
  O2-  -2.0
loop_
 _atom_site_type_symbol
 _atom_site_label
 _atom_site_symmetry_multiplicity
 _atom_site_fract_x
 _atom_site_fract_y
 _atom_site_fract_z
 _atom_site_occupancy
  Ba2+  Ba0  1  0.33333333  0.66666667  0.66681271  1
  Ba2+  Ba1  1  0.00000000  0.00000000  0.00014604  1
  Ba2+  Ba2  1  0.66666667  0.33333333  0.33347937  1
  Ti4+  Ti3  1  0.33333333  0.66666667  0.18000438  1
  Ti4+  Ti4  1  0.00000000  0.00000000  0.51333771  1
  Ti4+  Ti5  1  0.66666667  0.33333333  0.84667104  1
  O2-  O6  1  0.16974456  0.83025544  0.31920575  1
  O2-  O7  1  0.16974456  0.33948912  0.31920575  1
  O2-  O8  1  0.66051088  0.83025544  0.31920575  1
  O2-  O9  1  0.83641123  0.16358877  0.65253908  1
  O2-  O10  1  0.83641123  0.67282245  0.65253908  1
  O2-  O11  1  0.32717755  0.16358877  0.65253908  1
  O2-  O12  1  0.50307789  0.49692211  0.98587242  1
  O2-  O13  1  0.50307789  0.00615579  0.98587242  1
  O2-  O14  1  0.99384421  0.49692211  0.98587242  1
