# generated using pymatgen
data_BaTiO3
_symmetry_space_group_name_H-M   R3m
_cell_length_a   5.69651224
_cell_length_b   5.69651224
_cell_length_c   7.00668100
_cell_angle_alpha   90.00000000
_cell_angle_beta   90.00000000
_cell_angle_gamma   120.00000000
_symmetry_Int_Tables_number   160
_chemical_formula_structural   BaTiO3
_chemical_formula_sum   'Ba3 Ti3 O9'
_cell_volume   196.90695089
_cell_formula_units_Z   3
loop_
 _symmetry_equiv_pos_site_id
 _symmetry_equiv_pos_as_xyz
  1  'x, y, z'
  2  '-y, x-y, z'
  3  '-x+y, -x, z'
  4  '-y, -x, z'
  5  '-x+y, y, z'
  6  'x, x-y, z'
  7  'x+1/3, y+2/3, z+2/3'
  8  '-y+1/3, x-y+2/3, z+2/3'
  9  '-x+y+1/3, -x+2/3, z+2/3'
  10  '-y+1/3, -x+2/3, z+2/3'
  11  '-x+y+1/3, y+2/3, z+2/3'
  12  'x+1/3, x-y+2/3, z+2/3'
  13  'x+2/3, y+1/3, z+1/3'
  14  '-y+2/3, x-y+1/3, z+1/3'
  15  '-x+y+2/3, -x+1/3, z+1/3'
  16  '-y+2/3, -x+1/3, z+1/3'
  17  '-x+y+2/3, y+1/3, z+1/3'
  18  'x+2/3, x-y+1/3, z+1/3'
loop_
 _atom_type_symbol
 _atom_type_oxidation_number
  Ba2+  2.0
  Ti4+  4.0
  O2-  -2.0
loop_
 _atom_site_type_symbol
 _atom_site_label
 _atom_site_symmetry_multiplicity
 _atom_site_fract_x
 _atom_site_fract_y
 _atom_site_fract_z
 _atom_site_occupancy
  Ba2+  Ba0  3  0.00000000  0.00000000  0.00014604  1
  Ti4+  Ti1  3  0.00000000  0.00000000  0.51333771  1
  O2-  O2  9  0.16974456  0.33948912  0.31920575  1
