# generated using pymatgen
data_SrCoO3
_symmetry_space_group_name_H-M   Amm2
_cell_length_a   5.49019555
_cell_length_b   7.81798300
_cell_length_c   10.97180681
_cell_angle_alpha   90.00000000
_cell_angle_beta   90.00000000
_cell_angle_gamma   90.00000000
_symmetry_Int_Tables_number   38
_chemical_formula_structural   SrCoO3
_chemical_formula_sum   'Sr8 Co8 O24'
_cell_volume   470.93469472
_cell_formula_units_Z   8
loop_
 _symmetry_equiv_pos_site_id
 _symmetry_equiv_pos_as_xyz
  1  'x, y, z'
  2  '-x, -y, z'
  3  '-x, y, z'
  4  'x, -y, z'
  5  'x, y+1/2, z+1/2'
  6  '-x, -y+1/2, z+1/2'
  7  '-x, y+1/2, z+1/2'
  8  'x, -y+1/2, z+1/2'
loop_
 _atom_type_symbol
 _atom_type_oxidation_number
  Sr2+  2.0
  Co4+  4.0
  O2-  -2.0
loop_
 _atom_site_type_symbol
 _atom_site_label
 _atom_site_symmetry_multiplicity
 _atom_site_fract_x
 _atom_site_fract_y
 _atom_site_fract_z
 _atom_site_occupancy
  Sr2+  Sr0  4  0.00000000  0.24722950  0.50081350  1
  Sr2+  Sr1  4  0.50000000  0.24530100  0.74688900  1
  Co4+  Co2  2  0.00000000  0.00000000  0.24857500  1
  Co4+  Co3  2  0.00000000  0.00000000  0.74943100  1
  Co4+  Co4  2  0.50000000  0.00000000  0.49929050  1
  Co4+  Co5  2  0.50000000  0.00000000  0.99300650  1
  O2-  O6  4  0.00000000  0.23332300  0.75446300  1
  O2-  O7  4  0.23674900  0.00000000  0.36654650  1
  O2-  O8  4  0.24131600  0.00000000  0.12924650  1
  O2-  O9  4  0.24614000  0.00000000  0.62859850  1
  O2-  O10  4  0.24859600  0.00000000  0.88038550  1
  O2-  O11  4  0.50000000  0.24046050  0.49789450  1
